#!/bin/ksh
#
# The LM Job
#
rm -f cosmo_eu_job
#################################################
# number of processors
#################################################

NPX=1
NPY=16
NPIO=0
NNP=4
NP1=`expr $NPX \* $NPY`
NP=`expr $NP1 + $NPIO`
N1=`expr $NP + 15`
NODES=`expr $N1 \/ 16`
NN=`expr $NP \/ $NNP`

DATE=2013051312
FORM=grb1
BASE=/e/uscratch/uschaett/NEW_VERSIONS
INIDIR=$BASE/COSMO_EU_input_430
BD_DIR=$BASE/COSMO_EU_input_430
OBSDIR=$BASE/COSMO_EU_mld
OUTPUT=$BASE/COSMO_EU_output_rest
RESTAR=$BASE/COSMO_EU_output_rest

cat > cosmo_eu_job << ****

#################################################
# batch commandos
#################################################

#PBS -q normal
####PBS -l cpunum_job=$NPY
####PBS -b $NODES
#PBS -l cpunum_job=$NNP
#PBS -b $NN
#PBS -T mpisx
#PBS -j o
#PBS -N cosmo_eu_test

cd /e/uhome/uschaett/cosmo_131108_5.00  

# for IBM in Reading
# @ shell=/usr/bin/ksh
# @ output=cosmoeu.out
# @ error=cosmoeu.out
# @ job_type=parallel
# @ class=np
# @ initialdir=.
# @ network.MPI=sn_all,shared,us
# @ notification=never
# @ ec_smt=no
# @ node=$NODES
# @ total_tasks=$NP
# @ queue

#################################################
# global settings
#################################################

rm -f YU* M_*
rm -f $OUTPUT/l*
rm -f $RESTAR/l*

#################################################
# cat together the INPUT*-files
#################################################

cat > INPUT_ORG << end_input_org
 &LMGRID
  startlat_tot  = -20.0, startlon_tot  = -18.0,
  pollat=40.0,        pollon=-170.0,
  dlat=0.0625,        dlon=0.0625,
  ie_tot=665,         je_tot=657,        ke_tot=40,
 /
 &RUNCTL
  hstart = 0.0,   hstop  = 12.0,   dt      = 66.0,    ydate_ini='$DATE',
  nprocx = $NPX,  nprocy = $NPY,   nprocio = $NPIO,
  lphys      = .TRUE.,   luse_rttov    = .TRUE.,   luseobs = .FALSE.,  leps = .FALSE.,
  lreorder   = .FALSE.,  lreproduce    = .TRUE.,   itype_timing = 4,
  ldatatypes = .FALSE.,  ltime_barrier = .FALSE.,  ncomm_type=3,
  nboundlines=3, idbg_level = 2, lartif_data=.FALSE,
  ldfi=.FALSE., ldebug_io=.FALSE., lprintdeb_all=.FALSE.,
 /
 &TUNING
  c_soil   =   1.0,
  clc_diag =   0.5,
  crsmin   = 150.0,
  qc0      =   0.0,
  q_crit   =   4.0,
  qi0      =   0.0,
  rat_can  =   1.0,
  rat_lam  =   1.0,
  tur_len  = 500.0,
  v0snow   =  25.0,
  wichfakt =   0.0,
  tkhmin   =   0.4,
  tkmmin   =   0.4,
 /
end_input_org

cat > INPUT_INI  << end_input_ini
 &INICTL
  ndfi  = 1, 
  nfilt = 1,
  tspan = 3600.0,
  dtbak = 60.0,
  dtfwd = 60.0,
  taus  = 3600.0,
 /
end_input_ini

cat > INPUT_SAT  << end_input_sat
 &SATCTL
  itype_rttov=9,
  num_sensors=1,
  sat_input_01='MSG'     ,2,'SEVIRI',8, .TRUE., .TRUE., .TRUE., .TRUE.,
  nchan_input_01=1,2,3,4,5,6,7,8
  lcon_clw=.TRUE.,
 /
end_input_sat

cat > INPUT_IO  << end_input_io
 &IOCTL
  lasync_io=.FALSE., l_ke_in_gds=.TRUE., ngribout=1,
  yform_read='apix',
  ymode_write='w  ',
! itype_gather=1,
! nsma_stat=20,
! nhour_restart=3,6,3
! ydir_restart='$RESTAR',
! ytunit_restart='f',
! ytrans_in='/gtmp/uschaett/LM_TEST/LMQ_input/ready/',
! nincwait=30,
! nmaxwait=2400,
 /
 &DATABASE
 /
 &GRIBIN
! lan_t_so0=.TRUE., lan_t_cl=.TRUE., lan_w_cl=.TRUE., lan_vio3=.TRUE.,
! lan_hmo3=.TRUE., lan_plcov=.TRUE., lan_lai=.TRUE., lan_rootdp=.TRUE.,
! lan_t_snow=.TRUE., lan_w_i=.TRUE., lan_w_snow=.TRUE., lan_rho_snow=.TRUE.,
! lan_w_so=.TRUE.,
  lan_t_so0=.FALSE., lan_t_cl=.FALSE., lan_w_cl=.FALSE., lan_vio3=.FALSE.,
  lan_hmo3=.FALSE., lan_plcov=.FALSE., lan_lai=.FALSE., lan_rootdp=.FALSE.,
  lan_t_snow=.TRUE., lan_w_i=.TRUE., lan_w_snow=.TRUE., lan_rho_snow=.TRUE.,
  lan_w_so=.FALSE.,
  hincbound=1.0,
  lchkini=.TRUE.,    lchkbd =.TRUE., lbdana=.FALSE.,
  lana_qi=.TRUE.,    llb_qi=.TRUE.,  lana_rho_snow=.TRUE., 
  lana_qr_qs=.TRUE., llb_qr_qs=.TRUE.,
  ydirini='$INIDIR',
  ydirhhl='$INIDIR', ynamhhl='COSMO_HHL_002_041_001.g2',
  ydirbd='$BD_DIR',
 /
 &GRIBOUT
    hcomb=0,78,1.0,
    lanalysis=.false.,
    lcheck=.true.,
    yform_write='$FORM',
    lwrite_const=.true.,
    l_fi_filter=.true.,
    yvarml='U         ','V         ','W         ','T         ',
           'QV        ','QC        ','QI        ','P         ',
           'TKE       ','CLC       ','QR        ','QS        ',
           'PS        ','T_SNOW    ','T_S       ','W_SNOW    ',
           'QV_S      ','W_I       ','RAIN_GSP  ','SNOW_GSP  ',
           'RAIN_CON  ','SNOW_CON  ','U_10M     ','V_10M     ',
           'T_2M      ','TD_2M     ','TMIN_2M   ','TMAX_2M   ',
           'VMAX_10M  ','TCM       ','TCH       ','CLCT      ',
           'CLCH      ','CLCM      ','CLCL      ','ALB_RAD   ',
           'ASOB_S    ','ATHB_S    ','ASOB_T    ','ATHB_T    ',
           'APAB_S    ','ASWDIR_S  ','ASWDIFD_S ','ASWDIFU_S ',
           'TOT_PREC  ','Z0        ','AUMFL_S   ','AVMFL_S   ',
           'ASHFL_S   ','ALHFL_S   ','BAS_CON   ','TOP_CON   ',
           'HTOP_DC   ','RUNOFF_S  ','RUNOFF_G  ','PMSL      ',
           'T_G       ','HTOP_CON  ','HBAS_CON  ','HZEROCL   ',
           'CLCT_MOD  ','CLDEPTH   ','TDIV_HUM  ','TWATER    ',
           'AEVAP_S   ','CAPE_CON  ','TQI       ','TQC       ',
           'TQV       ','TQR       ','TQS       ','T_SO      ',
           'W_SO      ','W_SO_ICE  ','FRESHSNW  ',
                        'SNOWLMT   ','RHO_SNOW  ','H_SNOW    ',
           'RELHUM_2M ','ZHD       ','ZTD       ','ZWD       ',
           'CAPE_ML   ','CIN_ML    ',
           'T_MNW_LK  ','T_WML_LK  ','T_BOT_LK  ','C_T_LK    ',
           'H_ML_LK   ','T_ICE     ','H_ICE     ',
    yvarpl='T         ','RELHUM    ','U         ','V         ',
           'FI        ','OMEGA     ',
    yvarzl='T         ','RELHUM    ','U         ','V         ',
           'P         ','W         ',
    yvarsl='SYNMSG',
    zlev=500.0,1000.0,1500.0,2000.0,3000.0,5000.0,
  ydir='$OUTPUT',
 /
end_input_io

cat > INPUT_DYN << end_input_dyn
 &DYNCTL
    l2tls=.true.,
    lcond=.true.,
    irunge_kutta=1,
    irk_order=3,
    iadv_order=3,
    y_scalar_advect='BOTT2_STRANG',
    itype_fast_waves=2,
    divdamp_slope=100.0,
    itype_bbc_w=114,
    ldyn_bbc=.false.,
    l_diff_Smag=.true.,
    itype_hdiff=2,
    hd_corr_p_bd=0.0,
    hd_corr_p_in=0.0,
    hd_corr_trcr_bd=0.0,
    hd_corr_trcr_in=0.0,
    hd_corr_t_bd=0.0,
    hd_corr_t_in=0.0,
    hd_corr_u_bd=0.25,
    hd_corr_u_in=0.25,
    hd_dhmax=250.,
    itype_outflow_qrsg=1,
    ldiabf_lh=.true.,
    lexpl_lbc=.true.,
    lspubc=.true.,
    nrdtau=5,
    rlwidth=85000.0,
    xkd=0.1,
 /
end_input_dyn

cat > INPUT_PHY << end_input_phy
 &PHYCTL
    lgsp=.TRUE.,
      itype_gscp=3,
    lrad=.TRUE.,
      nradcoarse=1,
      lradf_avg=.FALSE.
      hincrad=1.0,
      lforest=.TRUE.,
      itype_albedo=3
    ltur=.TRUE.,
      ninctura=1,
      lexpcor=.FALSE.,
      ltmpcor=.FALSE.,
      lprfcor=.FALSE.,
      lnonloc=.FALSE.,
      lcpfluc=.FALSE.,
      limpltkediff=.TRUE.,
      itype_turb=3,
      imode_turb=1,
      itype_tran=2,
      imode_tran=1,
      itype_wcld=2,
      icldm_rad =4,
      icldm_turb=2,
      icldm_tran=0,
      itype_synd=2,
    lsoil=.TRUE.,
      itype_evsl=2,
      itype_trvg=2,
      lmulti_layer=.TRUE.,
      lmelt=.TRUE.,
      lmelt_var=.TRUE.,
      ke_soil = 7,
      czml_soil = 0.005, 0.02, 0.06, 0.18, 0.54, 1.62, 4.86, 14.58,
    llake=.TRUE.,
    lseaice=.TRUE.,
    lconv=.TRUE.,
      nincconv=4,
      itype_conv=0,
      lcape=.FALSE.,
    lsso=.TRUE.,
      ltkesso=.TRUE.,
 /
end_input_phy

cat > INPUT_DIA << end_input_dia
 &DIACTL
  ltestsuite=.FALSE.
  itype_diag_gusts=1,
  n0meanval=0, nincmeanval=1,
  lgplong=.TRUE., lgpshort=.FALSE., lgpspec=.FALSE.,
  n0gp=0,      hincgp=1.0,
  stationlist_tot= 0, 0, 50.050,  8.600, 'Frankfurt-Flughafen',
                   0, 0, 52.220, 14.135, 'Lindenberg_Obs',
                   0, 0, 52.167, 14.124, 'Falkenberg',
                   0, 0, 52.182, 13.954, 'Waldstation_Kehrigk',
                   0, 0, 47.800, 10.900, 'Hohenpeissenberg',
                   0, 0, 50.783,  6.100, 'Aachen',
                   0, 0, 48.433, 10.933, 'Augsburg',
                   0, 0, 49.980, 11.682, 'Bayreuth',
                   0, 0, 52.300, 10.450, 'Braunschweig',
                   0, 0, 51.967,  4.933, 'Cabauw',
                   0, 0, 50.283, 10.983, 'Coburg',
                   0, 0, 47.419, 10.982, 'Schneefernerhaus',
                   0, 0, 49.920,  7.960, 'Geisenheim',
                   0, 0, 53.633,  9.983, 'Hamburg',
                   0, 0, 54.750, 17.533, 'Leba',
                   0, 0, 51.200, 16.200, 'Legnica',
                   0, 0, 53.780, 21.580, 'Mikolajki',
                   0, 0, 37.122, -5.579, 'Moron_la_Frontera',
                   0, 0, 53.779,  8.669, 'Nordholz',
                   0, 0, 48.067, 11.267, 'Oberpfaffenhofen',
                   0, 0, 57.425, 18.983, 'Oestergarsholm',
                   0, 0, 46.817,  6.935, 'Payerne',
                   0, 0, 53.133, 16.750, 'Pila',
                   0, 0, 52.383, 13.067, 'Potsdam',
                   0, 0, 54.533,  9.550, 'Schleswig',
                   0, 0, 48.833,  9.200, 'Stuttgart',
                   0, 0, 51.350, 19.870, 'Sulejow',
                   0, 0, 45.217,  7.650, 'Turin-Caselle',
                   0, 0, 63.086, 25.980, 'Viitasaari',
                   0, 0, 54.633, 25.100, 'Vilnius',
                   0, 0, 52.167, 20.967, 'Warschau',
                   0, 0, 48.400, 11.700, 'Weihenstephan',
                   0, 0, 51.217, 18.567, 'Wielund',
                   0, 0, 51.550, 23.530, 'Wlodawa',
                   0, 0, 53.311, 11.838, 'Ziegendorf',
 /
end_input_dia

cat > INPUT_EPS << end_input_eps
 &EPSCTL
  iepsmem=0, iepstyp=55, iepstot=15,
 /
end_input_eps

cat > INPUT_ASS << end_input_ass
 &NUDGING
  lnudge  =.true.,
  itype_obfile = 2,
  ycdfdir='$OBSDIR/',
  hnudgsta= 0.0,  hnudgend = 4.0,  tconbox = 240.0,
  lverif  =.true.,
  llhn    =.false., llhnverif=.false., lhn_wweight=.true.,
  rqrsgmax= 0.4,
  radar_in='./',
  hversta = 0.001, hverend = 4.0,
  khumbal = 100,
  mruntyp = 2,
  ntpscor = 1,  ptpstop=400.0,  luvgcor=.TRUE.,
  ltipol  =.TRUE.,  tipolmx = 3.0,  wtukrsa = 3.0,  wtukrse = 1.0,
  ltipsu  =.TRUE.,  tipmxsu = 1.0,  wtuksua = 1.5,  wtuksue = 0.5,
  mveripr = 2,
                                    wtukara = 1.5,  wtukare = 0.5,
  msprpar = 1,  msprpsu = 0,
  gnudg   = 0.0006, 0.0012, 0.0006, 0.0006,
  gnudgsu = 0.0006, 0.0012, 0.0000, 0.0006,
  gnudgar = .0006, .0000, .0006, .0000,
  vcorls  = .333 , .333 , .04  , .04  ,  vcutof  = 0.75, 0.75, 1.0 , 1.0 ,
  vcorlsu = .013 , .013 , .002 ,.00001,  vcutosu = 0.75, 0.75, 4.0 ,0.001,
  vcsnisu = 2500., 2500., 9.   , 9.   ,
                                         rhvfac  = 1.0 , 0.0 , 0.83, 0.83,
  rhinfl  =    0.,   70.,    0.,    0.,  rhtfac  = 1.3 , 1.43, 1.3 , 1.3 ,
  rhiflsu =   70.,   70.,  100.,   70.,  rhtfsu  = 1.0 , 1.43, 1.0 , 1.0 ,
  fnondiv = 0.8  ,   cnondiv = 0.1    ,  cutofr  = 3.5 , 3.5 , 3.5 , 3.5 ,
  tnondiv = 1.1  ,                       cutofsu = 2.0 , 3.5 , 2.0 , 2.0 ,
  topobs  =  849., 1099.,  799.,  699.,
  botmod  = 1099., 1099., 1099.,  899.,
  lscadj  =.TRUE.,.TRUE.,.TRUE.,.FALSE.,
  dtqc    =  720.,                       qcvf    = 5.00, 1.00,10.00, 1.00,
  qcc     =  0.00,500.00,  0.00,  0.00,
  qccsu   =   12.,  500.,   12.,    .7,
  mqcorr92= 2,
  lsynop  =.true.,
  laircf  =.true.,
  ldribu  =.true.,
  ltemp   =.true.,
  lpilot  =.true.,
  lcd132  =.true., lcd133=.false., lcd136=.false.,
  maxmlo  = 1600,  maxsgo = 5000,  maxuso = 5000,  nolbc = 5,
  altopsu =  100., 5000., 5000., 5000.,  thairh  = 20.,
  exnlat  = 90.,  exslat =-90.,  exwlon = -180.,  exelon = 180.,
  lsurfa  =.false.,
  lt2m    =.false.,   ht2a = 0.,  ht2i = 1.,
  lrh2m   =.false.,  hh2a = 0.,  hh2i = 1.,
  lprecp  =.false., hprc = 0.,  raintp = 12.,
  lpraof  =.false.,  lprodr =.true. ,  ldiasa =.true.,  noctrq = 9,
  dinlat  = 55.,  dislat = 45.,  diwlon =  7.,  dielon = 14.,
  ionl    =167,   jonl =103,     ionl2 =167,    jonl2 =103,
  lff10m  =.true., hffa=0., hffi=1.,
 /
end_input_ass

#################################################
# run the program
#################################################

#RTTOV7 (and RTTOV9)
cp /e/uhome/uschaett/CONST/rtcoef_meteosat_7_mviri.dat .
cp /e/uhome/uschaett/CONST/rtcoef_msg_2_seviri.dat .

#RTTOV9
cp /e/uhome/uschaett/CONST/sccldcoef_msg_2_seviri.dat .
cp /e/uhome/uschaett/CONST/scicccoef_msg_2_seviri.dat .
cp /e/uhome/uschaett/CONST/scwrccoef_msg_2_seviri.dat .

#RTTOV10
#cp /e/uhome/uschaett/CONST/sccldcoef_msg_2_seviri.dat .
#cp /e/uhome/uschaett/CONST/rtcoef_meteosat_7_mviri.dat .
#cp /e/uhome/uschaett/CONST/rtcoef_msg_2_seviri.dat .

#################################

# machine specific for NEC
rm -f mon.out.* ftrace.out.*

#export GRIB_SAMPLES_PATH=/usr/local/pkg/grib_api/prerelease-1.11.0/share/grib_api/samples

export MPIPROGINF=yes
#export MPISUSPEND=on
export MPIPROGINF=ALL_DETAIL
export F_FTRACE=yes
export F_ERROPT1=255,255,0,0,2,2,2,2  
#export F_ERROPT2=253,253,0,0,0,0,2,2  
export F_ERRCNT=0
#export C_SETBUF_VERBOSE=YES
export C_SETBUF=48M
export GRIB_API_IO_BUFFER_SIZE=128000000
export MPIEXPORT="GRIB_API_IO_BUFFER_SIZE GRIB_SAMPLES_PATH F_ERRCNT F_ERROPT1 F_ERROPT2 MPIPROGINF F_PROGINF $LIBDWD_MPIEXPORT C_SETBUF C_SETBUF_VERBOSE"

#mpirun -nn $NN -nnp $NNP /usr/local/pkg/for0adm/abs/lm_f90
mpirun -nn $NN -nnp $NNP lmparbin_all
#mpirun -nn $NN -nnp $NNP /e/uhome/uschaett/COSMO_4.28/tstlm_f90

#ftrace -all -f ftrace.out* -fmt1
rm -f mon.out.* ftrace.out.*

#################################

# machine specific for IBM
#export MP_LABELIO=yes
#export MP_SHARED_MEMORY=yes
#export MP_WAIT_MODE=poll
##export MP_INFOLEVEL=2
#export MP_TASK_AFFINITY=mcm
#export MEMORY_AFFINITY=mcm
#export MP_SINGLE_THREAD=yes
#poe ../../lmbin

#################################

rm -f sc*coef_msg_2_seviri.dat
rm -f rtcoef*
rm -f tab.*.tex

#################################################
# cleanup
#################################################

rm -f INPUT_ORG INPUT_IO INPUT_DYN INPUT_DIA INPUT_PHY INPUT_INI
rm -f INPUT_ASS INPUT_SAT INPUT_EPS

****
chmod u+x cosmo_eu_job
nqsub cosmo_eu_job
#llsubmit cosmo_eu_job
rm cosmo_eu_job
